# File: ThreeStoryBuilding_Slave.tcl (use with ThreeStoryBuilding_Master.tcl)
# Units: [kip,in.]
#
# $Revision$
# $Date$
# $URL$
#
# Written: Andreas Schellenberg (andreas.schellenberg@gmail.com)
# Created: 09/07
# Revision: A
#
# Purpose: this file contains the tcl input to perform
# a coupled simulation of a three-story building.
# The adpater element is used to communicate with the
# main FE-software which is coordinating and executing
# the integration analysis.


# ------------------------------
# Start of model generation
# ------------------------------
logFile "ThreeStoryBuilding_Slave.log"
defaultUnits -force kip -length in -time sec -temp F

# create ModelBuilder (with two-dimensions and 2 DOF/node)
model BasicBuilder -ndm 2 -ndf 2

# Define geometry for model
# -------------------------
# node $tag $xCrd $yCrd
node   1  +0.000000E+000  +0.000000E+000 
node   2  +3.000000E+001  +0.000000E+000 
node   3  +6.000000E+001  +0.000000E+000 
node   5  +1.200000E+002  +0.000000E+000 
node   6  +1.500000E+002  +0.000000E+000 
node   7  +1.800000E+002  +0.000000E+000 
node   8  +2.100000E+002  +0.000000E+000 
node   9  +2.400000E+002  +0.000000E+000 
node  10  +2.700000E+002  +0.000000E+000 
node  11  +3.000000E+002  +0.000000E+000 
node  12  +3.300000E+002  +0.000000E+000 
node  13  +3.600000E+002  +0.000000E+000 
node  14  +0.000000E+000  +2.700000E+001 
node  15  +3.000000E+001  +2.700000E+001 
node  16  +6.000000E+001  +2.700000E+001 
node  18  +1.200000E+002  +2.700000E+001 
node  19  +1.500000E+002  +2.700000E+001 
node  20  +1.800000E+002  +2.700000E+001 
node  21  +2.100000E+002  +2.700000E+001 
node  22  +2.400000E+002  +2.700000E+001 
# ... 217 like lines cut

# set the boundary conditions
# fix $tag $DX $DY $RZ
fix  1  1  1
fix  2  1  1
fix  3  1  1
fix  5  1  1
fix  6  1  1
fix  7  1  1
fix  8  1  1
fix  9  1  1
fix 10  1  1
fix 11  1  1
fix 12  1  1
fix 13  1  1

# set nodal masses
# mass $tag $mx $my 
mass  79  +8.525425E-002  +8.525425E-002 
mass  80  +1.705085E-001  +1.705085E-001 
mass  81  +1.705085E-001  +1.705085E-001 
mass  82  +1.705085E-001  +1.705085E-001 
mass  83  +1.705085E-001  +1.705085E-001 
mass  84  +1.705085E-001  +1.705085E-001 
mass  85  +1.705085E-001  +1.705085E-001 
mass  86  +1.705085E-001  +1.705085E-001 
mass  87  +1.705085E-001  +1.705085E-001 
mass  88  +1.705085E-001  +1.705085E-001 
mass  89  +1.705085E-001  +1.705085E-001 
mass  90  +1.705085E-001  +1.705085E-001 
mass  91  +8.525425E-002  +8.525425E-002 
mass 157  +8.525425E-002  +8.525425E-002 
mass 158  +1.705085E-001  +1.705085E-001 
mass 159  +1.705085E-001  +1.705085E-001 
mass 160  +1.705085E-001  +1.705085E-001 
mass 161  +1.705085E-001  +1.705085E-001 
mass 162  +1.705085E-001  +1.705085E-001 
mass 163  +1.705085E-001  +1.705085E-001 
# ... 19 like lines cut

# set the MPConstraint 
# Equal DOF: 1stFloor: mNodeTag sNodeTag dof 
equalDOF      79      80  1 
equalDOF      79      81  1 
equalDOF      79      82  1 
equalDOF      79      83  1 
equalDOF      79      84  1 
equalDOF      79      85  1 
equalDOF      79      86  1 
equalDOF      79      87  1 
equalDOF      79      88  1 
equalDOF      79      89  1 
equalDOF      79      90  1 
equalDOF      79      91  1 
# Equal DOF: 2ndFloor: mNodeTag sNodeTag dof 
equalDOF     157     158  1 
equalDOF     157     159  1 
equalDOF     157     160  1 
equalDOF     157     161  1 
equalDOF     157     162  1 
equalDOF     157     163  1 
equalDOF     157     164  1 
equalDOF     157     165  1 
equalDOF     157     166  1 
equalDOF     157     167  1 
equalDOF     157     168  1 
equalDOF     157     169  1 
# Equal DOF: 3rdFloor: mNodeTag sNodeTag dof 
equalDOF     235     236  1 
equalDOF     235     237  1 
equalDOF     235     238  1 
equalDOF     235     239  1 
equalDOF     235     240  1 
equalDOF     235     241  1 
equalDOF     235     242  1 
equalDOF     235     243  1 
equalDOF     235     244  1 
equalDOF     235     245  1 
equalDOF     235     246  1 
equalDOF     235     247  1 

# Define materials
# ----------------
# nDMaterial ElasticIsotropic $matTag $E $v $rho 
nDMaterial ElasticIsotropic 2 +3.600000E+003 +2.000000E-001 +2.248000E-007 

# Define elements
# ---------------
# element quad $eleTag $NodeI $NodeJ $NodeK $NodeL $h $type $matTag $pressure $rho $b1 $b2 
element  quad       1       1       2      15      14  +2.400000E+001  "PlaneStress"       2  +0.000000E+000  +0.000000E+000  +0.000000E+000 +0.000000E+000
element  quad       2       2       3      16      15  +2.400000E+001  "PlaneStress"       2  +0.000000E+000  +0.000000E+000  +0.000000E+000 +0.000000E+000
element  quad       5       5       6      19      18  +2.400000E+001  "PlaneStress"       2  +0.000000E+000  +0.000000E+000  +0.000000E+000 +0.000000E+000
element  quad       6       6       7      20      19  +2.400000E+001  "PlaneStress"       2  +0.000000E+000  +0.000000E+000  +0.000000E+000 +0.000000E+000
element  quad       7       7       8      21      20  +2.400000E+001  "PlaneStress"       2  +0.000000E+000  +0.000000E+000  +0.000000E+000 +0.000000E+000
element  quad       8       8       9      22      21  +2.400000E+001  "PlaneStress"       2  +0.000000E+000  +0.000000E+000  +0.000000E+000 +0.000000E+000
element  quad       9       9      10      23      22  +2.400000E+001  "PlaneStress"       2  +0.000000E+000  +0.000000E+000  +0.000000E+000 +0.000000E+000
element  quad      10      10      11      24      23  +2.400000E+001  "PlaneStress"       2  +0.000000E+000  +0.000000E+000  +0.000000E+000 +0.000000E+000
element  quad      11      11      12      25      24  +2.400000E+001  "PlaneStress"       2  +0.000000E+000  +0.000000E+000  +0.000000E+000 +0.000000E+000
element  quad      12      12      13      26      25  +2.400000E+001  "PlaneStress"       2  +0.000000E+000  +0.000000E+000  +0.000000E+000 +0.000000E+000
element  quad      13      14      15      28      27  +2.400000E+001  "PlaneStress"       2  +0.000000E+000  +0.000000E+000  +0.000000E+000 +0.000000E+000
element  quad      14      15      16      29      28  +2.400000E+001  "PlaneStress"       2  +0.000000E+000  +0.000000E+000  +0.000000E+000 +0.000000E+000
element  quad      17      18      19      32      31  +2.400000E+001  "PlaneStress"       2  +0.000000E+000  +0.000000E+000  +0.000000E+000 +0.000000E+000
element  quad      18      19      20      33      32  +2.400000E+001  "PlaneStress"       2  +0.000000E+000  +0.000000E+000  +0.000000E+000 +0.000000E+000
element  quad      19      20      21      34      33  +2.400000E+001  "PlaneStress"       2  +0.000000E+000  +0.000000E+000  +0.000000E+000 +0.000000E+000
element  quad      20      21      22      35      34  +2.400000E+001  "PlaneStress"       2  +0.000000E+000  +0.000000E+000  +0.000000E+000 +0.000000E+000
element  quad      21      22      23      36      35  +2.400000E+001  "PlaneStress"       2  +0.000000E+000  +0.000000E+000  +0.000000E+000 +0.000000E+000
element  quad      22      23      24      37      36  +2.400000E+001  "PlaneStress"       2  +0.000000E+000  +0.000000E+000  +0.000000E+000 +0.000000E+000
element  quad      23      24      25      38      37  +2.400000E+001  "PlaneStress"       2  +0.000000E+000  +0.000000E+000  +0.000000E+000 +0.000000E+000
element  quad      24      25      26      39      38  +2.400000E+001  "PlaneStress"       2  +0.000000E+000  +0.000000E+000  +0.000000E+000 +0.000000E+000
# ... 172 like lines cut

# element adapter eleTag -node Ndi Ndj ... -dof dofNdi -dof dofNdj ... -stif Kij ipPort <-mass Mij>
element  adapter 1000  -node 79  157  235  -dof 1  -dof 1  -dof 1  -stif +1.000000E+012 +0.000000E+000 +0.000000E+000 +0.000000E+000 +1.000000E+012 +0.000000E+000 +0.000000E+000 +0.000000E+000 +1.000000E+012  44000
# ------------------------------
# End of model generation
# ------------------------------


# ------------------------------
# Start of analysis generation
# ------------------------------
# create the system of equations
system BandGeneral
# create the DOF numberer
numberer Plain
# create the constraint handler
constraints Transformation
# create the convergence test
test NormDispIncr 1.0e-12 25
#test NormUnbalance 1.0e-12 25
#test EnergyIncr 1.0e-12 25
# create the integration scheme
integrator LoadControl 1.0
# create the solution algorithm
algorithm Newton
# create the analysis object 
analysis Static
# ------------------------------
# End of analysis generation
# ------------------------------


# ------------------------------
# Start of recorder generation
# ------------------------------
# create the recorder objects
recorder Node -file Slave_Node_Dsp.out -time -node 79 157 235 -dof 1 2 3 disp
recorder Node -file Slave_Node_Vel.out -time -node 79 157 235 -dof 1 2 3 vel
recorder Node -file Slave_Node_Acc.out -time -node 79 157 235 -dof 1 2 3 accel
# --------------------------------
# End of recorder generation
# --------------------------------


# ------------------------------
# Finally perform the analysis
# ------------------------------
record
analyze 25000
exit
# --------------------------------
# End of analysis
# --------------------------------
