# File: ThreeStoryBuilding_Complete.tcl
# Units: [kip,in.]
#
# Written: Andreas Schellenberg (andreas.schellenberg@gmail.com)
# Created: 09/07
# Revision: A
#
# Purpose: this file contains the tcl input to perform
# an analytical simulation of a three-story building.


# -----------------------------------
# Start of model generation for wall
# -----------------------------------
logFile "ThreeStoryBuilding_Complete.log"
defaultUnits -force kip -length in -time sec -temp F

# create ModelBuilder (with two-dimensions and 2 DOF/node)
model BasicBuilder -ndm 2 -ndf 2

# Define geometry for model
# -------------------------
# node $tag $xCrd $yCrd
node   1  +0.000000E+000  +0.000000E+000 
node   2  +3.000000E+001  +0.000000E+000 
node   3  +6.000000E+001  +0.000000E+000 
node   5  +1.200000E+002  +0.000000E+000 
node   6  +1.500000E+002  +0.000000E+000 
node   7  +1.800000E+002  +0.000000E+000 
node   8  +2.100000E+002  +0.000000E+000 
node   9  +2.400000E+002  +0.000000E+000 
node  10  +2.700000E+002  +0.000000E+000 
node  11  +3.000000E+002  +0.000000E+000 
node  12  +3.300000E+002  +0.000000E+000 
node  13  +3.600000E+002  +0.000000E+000 
node  14  +0.000000E+000  +2.700000E+001 
node  15  +3.000000E+001  +2.700000E+001 
node  16  +6.000000E+001  +2.700000E+001 
node  18  +1.200000E+002  +2.700000E+001 
node  19  +1.500000E+002  +2.700000E+001 
node  20  +1.800000E+002  +2.700000E+001 
node  21  +2.100000E+002  +2.700000E+001 
node  22  +2.400000E+002  +2.700000E+001 
# ... 217 like lines cut

# set the boundary conditions
# fix $tag $DX $DY $RZ
fix  1  1  1
fix  2  1  1
fix  3  1  1
fix  5  1  1
fix  6  1  1
fix  7  1  1
fix  8  1  1
fix  9  1  1
fix 10  1  1
fix 11  1  1
fix 12  1  1
fix 13  1  1

# set nodal masses (use mass at nodes 1018, 1019, 1020 instead)
# mass $tag $mx $my 
#mass  79  +8.525425E-002  +8.525425E-002 
#mass  80  +1.705085E-001  +1.705085E-001 
#mass  81  +1.705085E-001  +1.705085E-001 
#mass  82  +1.705085E-001  +1.705085E-001 
#mass  83  +1.705085E-001  +1.705085E-001 
#mass  84  +1.705085E-001  +1.705085E-001 
#mass  85  +1.705085E-001  +1.705085E-001 
#mass  86  +1.705085E-001  +1.705085E-001 
#mass  87  +1.705085E-001  +1.705085E-001 
#mass  88  +1.705085E-001  +1.705085E-001 
#mass  89  +1.705085E-001  +1.705085E-001 
#mass  90  +1.705085E-001  +1.705085E-001 
#mass  91  +8.525425E-002  +8.525425E-002 
#mass 157  +8.525425E-002  +8.525425E-002 
#mass 158  +1.705085E-001  +1.705085E-001 
#mass 159  +1.705085E-001  +1.705085E-001 
#mass 160  +1.705085E-001  +1.705085E-001 
#mass 161  +1.705085E-001  +1.705085E-001 
#mass 162  +1.705085E-001  +1.705085E-001 
#mass 163  +1.705085E-001  +1.705085E-001 
# ... 19 like lines cut

# Define materials
# ----------------
# nDMaterial ElasticIsotropic $matTag $E $v $rho 
nDMaterial ElasticIsotropic 2 +3.600000E+003 +2.000000E-001 +0.0;  # do not use material mass
#nDMaterial ElasticIsotropic 2 +3.600000E+003 +2.000000E-001 +2.248000E-007 

# Define elements
# ---------------
# element quad $eleTag $NodeI $NodeJ $NodeK $NodeL $h $type $matTag $pressure $rho $b1 $b2 
element  quad       1       1       2      15      14  +2.400000E+001  "PlaneStress"       2  +0.000000E+000  +0.000000E+000  +0.000000E+000 +0.000000E+000
element  quad       2       2       3      16      15  +2.400000E+001  "PlaneStress"       2  +0.000000E+000  +0.000000E+000  +0.000000E+000 +0.000000E+000
element  quad       5       5       6      19      18  +2.400000E+001  "PlaneStress"       2  +0.000000E+000  +0.000000E+000  +0.000000E+000 +0.000000E+000
element  quad       6       6       7      20      19  +2.400000E+001  "PlaneStress"       2  +0.000000E+000  +0.000000E+000  +0.000000E+000 +0.000000E+000
element  quad       7       7       8      21      20  +2.400000E+001  "PlaneStress"       2  +0.000000E+000  +0.000000E+000  +0.000000E+000 +0.000000E+000
element  quad       8       8       9      22      21  +2.400000E+001  "PlaneStress"       2  +0.000000E+000  +0.000000E+000  +0.000000E+000 +0.000000E+000
element  quad       9       9      10      23      22  +2.400000E+001  "PlaneStress"       2  +0.000000E+000  +0.000000E+000  +0.000000E+000 +0.000000E+000
element  quad      10      10      11      24      23  +2.400000E+001  "PlaneStress"       2  +0.000000E+000  +0.000000E+000  +0.000000E+000 +0.000000E+000
element  quad      11      11      12      25      24  +2.400000E+001  "PlaneStress"       2  +0.000000E+000  +0.000000E+000  +0.000000E+000 +0.000000E+000
element  quad      12      12      13      26      25  +2.400000E+001  "PlaneStress"       2  +0.000000E+000  +0.000000E+000  +0.000000E+000 +0.000000E+000
element  quad      13      14      15      28      27  +2.400000E+001  "PlaneStress"       2  +0.000000E+000  +0.000000E+000  +0.000000E+000 +0.000000E+000
element  quad      14      15      16      29      28  +2.400000E+001  "PlaneStress"       2  +0.000000E+000  +0.000000E+000  +0.000000E+000 +0.000000E+000
element  quad      17      18      19      32      31  +2.400000E+001  "PlaneStress"       2  +0.000000E+000  +0.000000E+000  +0.000000E+000 +0.000000E+000
element  quad      18      19      20      33      32  +2.400000E+001  "PlaneStress"       2  +0.000000E+000  +0.000000E+000  +0.000000E+000 +0.000000E+000
element  quad      19      20      21      34      33  +2.400000E+001  "PlaneStress"       2  +0.000000E+000  +0.000000E+000  +0.000000E+000 +0.000000E+000
element  quad      20      21      22      35      34  +2.400000E+001  "PlaneStress"       2  +0.000000E+000  +0.000000E+000  +0.000000E+000 +0.000000E+000
element  quad      21      22      23      36      35  +2.400000E+001  "PlaneStress"       2  +0.000000E+000  +0.000000E+000  +0.000000E+000 +0.000000E+000
element  quad      22      23      24      37      36  +2.400000E+001  "PlaneStress"       2  +0.000000E+000  +0.000000E+000  +0.000000E+000 +0.000000E+000
element  quad      23      24      25      38      37  +2.400000E+001  "PlaneStress"       2  +0.000000E+000  +0.000000E+000  +0.000000E+000 +0.000000E+000
element  quad      24      25      26      39      38  +2.400000E+001  "PlaneStress"       2  +0.000000E+000  +0.000000E+000  +0.000000E+000 +0.000000E+000
# ... 172 like lines cut


# ------------------------------------
# Start of model generation for frame
# ------------------------------------
# create ModelBuilder (with two-dimensions and 2 DOF/node)
model BasicBuilder -ndm 2 -ndf 3

# Define geometry for model
# -------------------------
set numBay 4
set numStory 3
set bayWidth [expr 30.0*12.0]
set storyHeight [expr 13.5*12.0]
set w1 3160
set w2 3160
set w3 2600
set m1 [expr $w1/($numBay*2.0)/386.1]
set m2 [expr $w2/($numBay*2.0)/386.1]
set m3 [expr $w3/($numBay*2.0)/386.1]

# node $tag $xCrd $yCrd
node  1001  [expr 0.0*$bayWidth]  [expr 0.0*$storyHeight]
node  1002  [expr 0.0*$bayWidth]  [expr 1.0*$storyHeight]
node  1003  [expr 0.0*$bayWidth]  [expr 2.0*$storyHeight]
node  1004  [expr 0.0*$bayWidth]  [expr 3.0*$storyHeight]
node  1005  [expr 1.0*$bayWidth]  [expr 0.0*$storyHeight]
node  1006  [expr 1.0*$bayWidth]  [expr 1.0*$storyHeight]
node  1007  [expr 1.0*$bayWidth]  [expr 2.0*$storyHeight]
node  1008  [expr 1.0*$bayWidth]  [expr 3.0*$storyHeight]
node  1009  [expr 2.0*$bayWidth]  [expr 0.0*$storyHeight]
node  1010  [expr 2.0*$bayWidth]  [expr 1.0*$storyHeight]
node  1011  [expr 2.0*$bayWidth]  [expr 2.0*$storyHeight]
node  1012  [expr 2.0*$bayWidth]  [expr 3.0*$storyHeight]
node  1013  [expr 3.0*$bayWidth]  [expr 0.0*$storyHeight]
node  1014  [expr 3.0*$bayWidth]  [expr 1.0*$storyHeight]
node  1015  [expr 3.0*$bayWidth]  [expr 2.0*$storyHeight]
node  1016  [expr 3.0*$bayWidth]  [expr 3.0*$storyHeight]
node  1017  [expr 4.0*$bayWidth]  [expr 0.0*$storyHeight]
node  1018  [expr 4.0*$bayWidth]  [expr 1.0*$storyHeight]
node  1019  [expr 4.0*$bayWidth]  [expr 2.0*$storyHeight]
node  1020  [expr 4.0*$bayWidth]  [expr 3.0*$storyHeight]

# mass $tag $MX $MY $RZ
mass  1002  [expr 1.0*$m1]  [expr 1.0*$m1]  0.0
mass  1003  [expr 1.0*$m2]  [expr 1.0*$m2]  0.0
mass  1004  [expr 1.0*$m3]  [expr 1.0*$m3]  0.0
mass  1006  [expr 2.0*$m1]  [expr 2.0*$m1]  0.0
mass  1007  [expr 2.0*$m2]  [expr 2.0*$m2]  0.0
mass  1008  [expr 2.0*$m3]  [expr 2.0*$m3]  0.0
mass  1010  [expr 2.0*$m1]  [expr 2.0*$m1]  0.0
mass  1011  [expr 2.0*$m2]  [expr 2.0*$m2]  0.0
mass  1012  [expr 2.0*$m3]  [expr 2.0*$m3]  0.0
mass  1014  [expr 2.0*$m1]  [expr 2.0*$m1]  0.0
mass  1015  [expr 2.0*$m2]  [expr 2.0*$m2]  0.0
mass  1016  [expr 2.0*$m3]  [expr 2.0*$m3]  0.0
mass  1018  [expr 3.0*$m1]  [expr 3.0*$m1]  0.0
mass  1019  [expr 3.0*$m2]  [expr 3.0*$m2]  0.0
mass  1020  [expr 3.0*$m3]  [expr 3.0*$m3]  0.0

# set the boundary conditions
# fix $tag $DX $DY $RZ
fix  1001   1  1  1
fix  1005   1  1  1
fix  1009   1  1  1
fix  1013   1  1  1
fix  1017   1  1  1
fix  1018   0  1  1
fix  1019   0  1  1
fix  1020   0  1  1

# Define material
# ---------------
# uniaxialMaterial Elastic $tag $E
uniaxialMaterial Elastic  1  29000

# Define coordinate transformation
# --------------------------------
# geomTransf Linear $transfTag
geomTransf Linear 1

# Define numerical elements
# -------------------------
# exterior column W14x257
# element elasticBeamColumn $eleTag $iNode $jNode $A $E $Iz $transfTag
element elasticBeamColumn  1001  1001  1002 75.6 29000 3400 1
element elasticBeamColumn  1002  1002  1003 75.6 29000 3400 1
element elasticBeamColumn  1003  1003  1004 75.6 29000 3400 1
# interior columns W14x311
# element elasticBeamColumn $eleTag $iNode $jNode $A $E $Iz $transfTag
element elasticBeamColumn  1004 1005 1006 91.4 29000 4330 1
element elasticBeamColumn  1005 1006 1007 91.4 29000 4330 1
element elasticBeamColumn  1006 1007 1008 91.4 29000 4330 1
element elasticBeamColumn  1007 1009 1010 91.4 29000 4330 1
element elasticBeamColumn  1008 1010 1011 91.4 29000 4330 1
element elasticBeamColumn  1009 1011 1012 91.4 29000 4330 1
# exterior column W14x257
# element elasticBeamColumn $eleTag $iNode $jNode $A $E $Iz $transfTag
element elasticBeamColumn 1010 1013 1014 75.6 29000 3400 1
element elasticBeamColumn 1011 1014 1015 75.6 29000 3400 1
element elasticBeamColumn 1012 1015 1016 75.6 29000 3400 1
# 1st floor beams W33x118
# element elasticBeamColumn $eleTag $iNode $jNode $A $E $Iz $transfTag
element elasticBeamColumn 1101 1002 1006 34.7 29000 5900 1
element elasticBeamColumn 1102 1006 1010 34.7 29000 5900 1
element elasticBeamColumn 1103 1010 1014 34.7 29000 5900 1
element truss             1104 1014 1018 34.7 1
# 2nd floor beams W30x116
# element elasticBeamColumn $eleTag $iNode $jNode $A $E $Iz $transfTag
element elasticBeamColumn 1105 1003 1007 34.2 29000 4930 1
element elasticBeamColumn 1106 1007 1011 34.2 29000 4930 1
element elasticBeamColumn 1107 1011 1015 34.2 29000 4930 1
element truss             1108 1015 1019 34.2 1
# 3rd floor beams W24x68
# element elasticBeamColumn $eleTag $iNode $jNode $A $E $Iz $transfTag
element elasticBeamColumn 1109 1004 1008 20.1 29000 1830 1
element elasticBeamColumn 1110 1008 1012 20.1 29000 1830 1
element elasticBeamColumn 1111 1012 1016 20.1 29000 1830 1
element truss             1112 1016 1020 20.1 1


# -----------------------
# Connect frame and wall
# -----------------------
# set the mp-constraints
# Equal DOF: 1stFloor: mNodeTag sNodeTag dof 
equalDOF 1002  1006  1 
equalDOF 1002  1010  1 
equalDOF 1002  1014  1 
equalDOF 1002  1018  1 
equalDOF 1002    79  1
equalDOF 1002    80  1 
equalDOF 1002    81  1 
equalDOF 1002    82  1 
equalDOF 1002    83  1 
equalDOF 1002    84  1 
equalDOF 1002    85  1 
equalDOF 1002    86  1 
equalDOF 1002    87  1 
equalDOF 1002    88  1 
equalDOF 1002    89  1 
equalDOF 1002    90  1 
equalDOF 1002    91  1 
# Equal DOF: 2ndFloor: mNodeTag sNodeTag dof 
equalDOF 1003  1007  1 
equalDOF 1003  1011  1 
equalDOF 1003  1015  1 
equalDOF 1003  1019  1 
equalDOF 1003   157  1
equalDOF 1003   158  1 
equalDOF 1003   159  1 
equalDOF 1003   160  1 
equalDOF 1003   161  1 
equalDOF 1003   162  1 
equalDOF 1003   163  1 
equalDOF 1003   164  1 
equalDOF 1003   165  1 
equalDOF 1003   166  1 
equalDOF 1003   167  1 
equalDOF 1003   168  1 
equalDOF 1003   169  1 
# Equal DOF: 3rdFloor: mNodeTag sNodeTag dof 
equalDOF 1004  1008  1 
equalDOF 1004  1012  1 
equalDOF 1004  1016  1 
equalDOF 1004  1020  1 
equalDOF 1004   235  1
equalDOF 1004   236  1 
equalDOF 1004   237  1 
equalDOF 1004   238  1 
equalDOF 1004   239  1 
equalDOF 1004   240  1 
equalDOF 1004   241  1 
equalDOF 1004   242  1 
equalDOF 1004   243  1 
equalDOF 1004   244  1 
equalDOF 1004   245  1 
equalDOF 1004   246  1 
equalDOF 1004   247  1 


# Define dynamic loads
# --------------------
# set time series to be passed to uniform excitation
set dt 0.01
set scale 1.0
timeSeries Path 1 -filePath SACNF01.txt -dt $dt -factor [expr 386.1*$scale]

# create UniformExcitation load pattern
# pattern UniformExcitation $tag $dir -accel $tsTag <-vel0 $vel0>
pattern UniformExcitation 1 1 -accel 1

# calculate the rayleigh damping factors for nodes & elements
set alphaM     2.0138;          # D = alphaM*M
set betaK      0.0;             # D = betaK*Kcurrent
set betaKinit  0.0;             # D = beatKinit*Kinit
set betaKcomm  0.0;             # D = betaKcomm*KlastCommit

# set the rayleigh damping 
rayleigh $alphaM $betaK $betaKinit $betaKcomm
# ------------------------------
# End of model generation
# ------------------------------


# ------------------------------
# Start of analysis generation
# ------------------------------
# create the system of equations
system BandGeneral
# create the DOF numberer
numberer Plain
# create the constraint handler
constraints Transformation
# create the convergence test
test EnergyIncr 1.0e-12 25
# create the integration scheme
integrator Newmark 0.5 0.25
#integrator NewmarkExplicit 0.5
#integrator AlphaOS 1.0
# create the solution algorithm
algorithm Newton
#algorithm Linear
# create the analysis object 
analysis Transient
# ------------------------------
# End of analysis generation
# ------------------------------


# ------------------------------
# Start of recorder generation
# ------------------------------
# create the recorder objects
recorder Node -file Node_Dsp.out -time -node 1002 1003 1004 1018 1019 1020 79 157 235 -dof 1 2 3 disp
recorder Node -file Node_Vel.out -time -node 1002 1003 1004 1018 1019 1020 79 157 235 -dof 1 2 3 vel
recorder Node -file Node_Acc.out -time -node 1002 1003 1004 1018 1019 1020 79 157 235 -dof 1 2 3 accel
# --------------------------------
# End of recorder generation
# --------------------------------


# ------------------------------
# Finally perform the analysis
# ------------------------------
# perform an eigenvalue analysis
puts "\nStarting Eigenvalue analysis ..."
set lambda [eigen -fullGenLapack 15]
puts "\nEigenvalues at start of transient:"
puts "|   lambda   |  omega   |  period | frequency |"
foreach lambda $lambda {
    set omega [expr pow($lambda,0.5)]
    set period [expr 2.0*$pi/$omega]
    set frequ [expr 1.0/$period]
    puts [format "| %5.3e | %8.4f | %7.4f | %9.4f |" $lambda $omega $period $frequ]
}

# open output file for writing
set outFileID [open elapsedTime.txt w]
# perform the transient analysis
puts "\nStarting transient analysis ..."
puts "step 0"
record
set tTot [time {
    for {set i 1} {$i < 2500} {incr i} {
        set t [time {analyze  1  $dt}]
        puts $outFileID $t
        if {[expr fmod($i,100)] == 0.0} {
            puts "step $i"
        }
    }
}]
puts "\nElapsed Time = $tTot \n"
# close the output file
close $outFileID
wipe
exit
# --------------------------------
# End of analysis
# --------------------------------
