# File: OneBayFrame_Local_SimAppServer.tcl
# (use with Run_OneBayFrame_Exp.bat or Run_OneBayFrame_Imp.bat)
# Units: [kip,in.]
#
# $Revision$
# $Date$
# $URL$
#
# Written: Andreas Schellenberg (andreas.schellenberg@gmail.com)
# Created: 11/06
# Revision: A
#
# Purpose: this file contains the tcl input to perform
# a local hybrid simulation of a one bay frame
# with two experimental twoNodeLink elements.
# The specimen is simulated using the SimUniaxialMaterials
# controller.


# ------------------------------
# Start of model generation
# ------------------------------
logFile "OneBayFrame_Local_SimAppServer.log"
defaultUnits -force kip -length in -time sec -temp F

# create ModelBuilder (with two-dimensions and 2 DOF/node)
model BasicBuilder -ndm 2 -ndf 2

# Define geometry for model
# -------------------------
# node $tag $xCrd $yCrd $mass
node  1     0.0   0.00
node  3     0.0  54.00

# Define materials
# ----------------
# uniaxialMaterial Steel02 $matTag $Fy $E $b $R0 $cR1 $cR2 $a1 $a2 $a3 $a4 
#uniaxialMaterial Elastic 1 2.8
uniaxialMaterial Steel02 1 1.5 2.8 0.01 18.5 0.925 0.15 0.0 1.0 0.0 1.0

# Define experimental control
# ---------------------------
# expControl SimUniaxialMaterials $tag $matTags
expControl SimUniaxialMaterials 1 1

# Define experimental setup
# -------------------------
# expSetup OneActuator $tag <-control $ctrlTag> $dir -sizeTrialOut $t $o <-trialDispFact $f> ...
expSetup OneActuator 1 -control 1 1 -sizeTrialOut 1 1

# Define experimental site
# ------------------------
# expSite LocalSite $tag $setupTag
expSite LocalSite 1 1

# Define experimental element
# ---------------------------
# left column
# expElement twoNodeLink $eleTag $iNode $jNode -dir $dirs -site $siteTag -initStif $Kij <-orient <$x1 $x2 $x3> $y1 $y2 $y3> <-pDelta Mratios> <-iMod> <-mass $m>
expElement twoNodeLink 1 1 3 -dir 2 -site 1 -initStif 2.8
# ------------------------------
# End of model generation
# ------------------------------


# ------------------------------
# Start the server process
# ------------------------------
# startSimAppElemServer $eleTag $port <-ssl> <-udp>
startSimAppElemServer 1 8090;  # use with generic client element in FEA

# startSimAppSiteServer $siteTag $port <-ssl> <-udp>
#startSimAppSiteServer 1 8090;  # use with experimental element in FEA
exit
# --------------------------------
# End of analysis
# --------------------------------
